/*--------------------------------*- C++ -*----------------------------------*\
| =========                 |                                                 |
| \\      /  F ield         | OpenFOAM: The Open Source CFD Toolbox           |
|  \\    /   O peration     | Version:  v1806                                 |
|   \\  /    A nd           | Web:      www.OpenFOAM.com                      |
|    \\/     M anipulation  |                                                 |
\*---------------------------------------------------------------------------*/
FoamFile
{
    version     2.0;
    format      ascii;
    class       dictionary;
    object      topoSetDict;
}
// * * * * * * * * * * * * * * * * * * * * * * * * * * * * * * * * * * * * * //

actions
(
    {
        name    c0;
        type    cellSet;
        action  new;
        source  regionsToCell;
        sourceInfo
        {
            insidePoints ((0 0.0001 -3));
        }
    }
    
    {
        name    c1;
        type    cellSet;
        action  new;
        source  zoneToCell;
        sourceInfo
        {
            //zone    "floatingObject";
            name  "floatingObject";
        }
    }
);

// ************************************************************************* //
